30
XYZ from PySCF
O           1.50787        2.80466       -0.00458
O          -0.77276       -2.07404        0.00757
N           1.31748       -0.83022        0.00381
N          -1.59585        1.48691       -0.00074
C           0.71616        0.44517        0.00105
C           3.00591        0.74284       -0.00025
C           2.69939       -0.67030        0.00308
C          -0.71992        0.44525        0.00151
C           1.74616        1.44124       -0.00152
C          -2.83293       -0.62170        0.00466
C          -1.39151       -0.93961        0.00506
C          -2.89780        0.80943        0.00124
C           4.35400        1.17422       -0.00161
C           3.73670       -1.63306        0.00501
C          -3.99266       -1.40861        0.00682
C          -4.14933        1.44881        0.00002
C           5.36300        0.21503        0.00033
C           5.05297       -1.17278        0.00359
C          -5.24023       -0.75769        0.00556
C          -5.31004        0.64974        0.00221
H           0.52738       -1.65560        0.00600
H           4.60225        2.24767       -0.00415
H           3.50566       -2.70781        0.00753
H          -3.92756       -2.50869        0.00943
H          -4.21431        2.54726       -0.00260
H           6.41654        0.52824       -0.00068
H           5.87712       -1.90177        0.00503
H          -6.16718       -1.34916        0.00720
H          -6.29736        1.13795        0.00127
H           2.46575        3.19260       -0.00571
